17

  Si         -0.00016217760413     -0.00000200966369     -0.00001724916921
  C          -0.00000381060783     -0.00000292410772      1.87604035066756
  C           1.76890263153042     -0.00000220438520     -0.62476798792801
  C          -0.88452969047227     -1.53170003319882     -0.62565336419779
  C          -0.88451803763557      1.53170284867113     -0.62564941393828
  H          -1.02024320585180     -0.00004763673129      2.26807747150872
  H           0.51041349194385      0.88367742102248      2.26744728207030
  H           0.51049406579855     -0.88363545598283      2.26744932583441
  H           1.79889713542055     -0.00002636281349     -1.71733986918209
  H           2.30802219317048      0.88363945655706     -0.27386690302155
  H           2.30803592092593     -0.88361814255887     -0.27382577782536
  H          -0.90062854341904     -1.55578670297871     -1.71826319426016
  H          -1.91903757060460     -1.55776918964915     -0.27388248209104
  H          -0.38800706817058     -2.44075463393491     -0.27679593332374
  H          -0.90062145682280      1.55579443985819     -1.71826001944301
  H          -1.91902290654613      1.55778308725346     -0.27387187984590
  H          -0.38798097105504      2.44074804264236     -0.27679035585484