42

N       -1.962393000     -0.032120000     -0.021514000
C       -0.589899000     -0.193682000     -0.063610000
C       -0.008608000     -1.413628000     -0.473168000
C        0.278937000      0.860487000      0.305991000
C        1.358296000     -1.555879000     -0.513719000
H       -0.639920000     -2.237834000     -0.772743000
C        1.643821000      0.705082000      0.267422000
H       -0.136041000      1.800425000      0.641110000
C        2.236731000     -0.509949000     -0.147744000
H        1.777008000     -2.497778000     -0.848931000
H        2.260595000      1.536309000      0.576483000
C       -2.562775000      1.269419000     -0.052825000
C       -2.275036000      2.154505000     -1.092943000
C       -3.464054000      1.641779000      0.944960000
C       -2.875270000      3.408034000     -1.123833000
H       -1.586566000      1.858028000     -1.874411000
C       -4.068912000      2.893067000      0.902762000
H       -3.688155000      0.952471000      1.749401000
C       -3.774493000      3.781314000     -0.128223000
H       -2.648080000      4.089032000     -1.935090000
H       -4.765831000      3.176033000      1.682330000
H       -4.244771000      4.756520000     -0.157525000
C       -2.845571000     -1.159554000      0.042541000
C       -3.857940000     -1.303504000     -0.906452000
C       -2.719353000     -2.097038000      1.068844000
C       -4.735325000     -2.379465000     -0.828925000
H       -3.955943000     -0.574073000     -1.700726000
C       -3.593175000     -3.176130000      1.134819000
H       -1.942297000     -1.976816000      1.813456000
C       -4.604550000     -3.320674000      0.188536000
H       -5.517765000     -2.485068000     -1.570630000
H       -3.490246000     -3.898179000      1.935819000
H       -5.287488000     -4.159345000      0.245654000
C        3.638703000     -0.770941000     -0.229565000
C        4.744279000     -0.008183000      0.042453000
C        4.704617000      1.331687000      0.512288000
N        4.681984000      2.422173000      0.894652000
C        6.073356000     -0.621306000     -0.165483000
O        6.264513000     -1.751732000     -0.564300000
O        7.084758000      0.218980000      0.138792000
H        7.918050000     -0.252446000     -0.021874000
H        3.893465000     -1.768277000     -0.574972000
